REMARK SMILES [H]/N=C(/N)N/C(=N/[H])N(C)C
REMARK SMILES IDX 10 1 9 2 11 3 6 4 7 5 5 6 3 7 4 8 2 9 8 10 1 14
REMARK H PARENT 5 11 4 12 4 13
REMARK Flexibility Score: inf
ROOT
ATOM      1  C   UNL A   1       0.906   0.012  -0.071  1.00  0.00     0.146 C 
ATOM      2  N   UNL A   1       2.360  -0.008   0.024  1.00  0.00    -0.349 N 
ATOM      3  C   UNL A   1       3.142   0.216  -1.183  1.00  0.00     0.146 C 
ATOM      4  C   UNL A   1       3.017  -0.245   1.294  1.00  0.00     0.197 C 
ATOM      5  N   UNL A   1       2.317  -0.441   2.357  1.00  0.00    -0.269 NA
ATOM      6  N   UNL A   1       4.456  -0.261   1.373  1.00  0.00    -0.297 N 
ATOM      7  C   UNL A   1       5.284  -0.478   2.534  1.00  0.00     0.192 C 
ATOM      8  N   UNL A   1       4.771  -0.722   3.840  1.00  0.00    -0.370 N 
ATOM      9  N   UNL A   1       6.564  -0.453   2.395  1.00  0.00    -0.269 NA
ATOM     10  H   UNL A   1       1.290  -0.445   2.384  1.00  0.00     0.191 HD
ATOM     11  H   UNL A   1       4.975  -0.098   0.500  1.00  0.00     0.173 HD
ATOM     12  H   UNL A   1       3.778  -0.767   4.078  1.00  0.00     0.159 HD
ATOM     13  H   UNL A   1       5.431  -0.868   4.618  1.00  0.00     0.159 HD
ATOM     14  H   UNL A   1       7.014  -0.282   1.483  1.00  0.00     0.191 HD
ENDROOT
TORSDOF 0
