MODEL 1
REMARK VINA RESULT:    -4.418      0.000      0.000
REMARK INTER + INTRA:          -4.418
REMARK INTER:                  -4.418
REMARK INTRA:                   0.000
REMARK UNBOUND:                 0.000
REMARK SMILES [H]/N=C(/N)N/C(=N/[H])N(C)C
REMARK SMILES IDX 10 1 9 2 11 3 6 4 7 5 5 6 3 7 4 8 2 9 8 10 1 14
REMARK H PARENT 5 11 4 12 4 13
REMARK Flexibility Score: inf
ROOT
ATOM      1  C   UNL A   1     -33.807 -33.679  32.323  1.00  0.00     0.146 C 
ATOM      2  N   UNL A   1     -34.741 -34.043  31.264  1.00  0.00    -0.349 N 
ATOM      3  C   UNL A   1     -35.168 -35.430  31.156  1.00  0.00     0.146 C 
ATOM      4  C   UNL A   1     -35.236 -33.045  30.337  1.00  0.00     0.197 C 
ATOM      5  N   UNL A   1     -34.854 -31.820  30.441  1.00  0.00    -0.269 NA
ATOM      6  N   UNL A   1     -36.160 -33.420  29.296  1.00  0.00    -0.297 N 
ATOM      7  C   UNL A   1     -36.758 -32.579  28.288  1.00  0.00     0.192 C 
ATOM      8  N   UNL A   1     -36.508 -31.182  28.170  1.00  0.00    -0.370 N 
ATOM      9  N   UNL A   1     -37.568 -33.110  27.439  1.00  0.00    -0.269 NA
ATOM     10  H   UNL A   1     -34.200 -31.474  31.154  1.00  0.00     0.191 HD
ATOM     11  H   UNL A   1     -36.440 -34.408  29.251  1.00  0.00     0.173 HD
ATOM     12  H   UNL A   1     -35.887 -30.646  28.780  1.00  0.00     0.159 HD
ATOM     13  H   UNL A   1     -36.975 -30.651  27.421  1.00  0.00     0.159 HD
ATOM     14  H   UNL A   1     -37.802 -34.114  27.458  1.00  0.00     0.191 HD
ENDROOT
TORSDOF 0
ENDMDL
MODEL 2
REMARK VINA RESULT:    -4.235     24.657     26.007
REMARK INTER + INTRA:          -4.235
REMARK INTER:                  -4.235
REMARK INTRA:                   0.000
REMARK UNBOUND:                 0.000
REMARK SMILES [H]/N=C(/N)N/C(=N/[H])N(C)C
REMARK SMILES IDX 10 1 9 2 11 3 6 4 7 5 5 6 3 7 4 8 2 9 8 10 1 14
REMARK H PARENT 5 11 4 12 4 13
REMARK Flexibility Score: inf
ROOT
ATOM      1  C   UNL A   1     -39.748 -56.055  13.004  1.00  0.00     0.146 C 
ATOM      2  N   UNL A   1     -39.802 -54.603  12.899  1.00  0.00    -0.349 N 
ATOM      3  C   UNL A   1     -39.911 -54.002  11.578  1.00  0.00     0.146 C 
ATOM      4  C   UNL A   1     -39.751 -53.771  14.085  1.00  0.00     0.197 C 
ATOM      5  N   UNL A   1     -39.655 -54.311  15.250  1.00  0.00    -0.269 NA
ATOM      6  N   UNL A   1     -39.807 -52.335  13.965  1.00  0.00    -0.297 N 
ATOM      7  C   UNL A   1     -39.769 -51.350  15.018  1.00  0.00     0.192 C 
ATOM      8  N   UNL A   1     -39.664 -51.670  16.402  1.00  0.00    -0.370 N 
ATOM      9  N   UNL A   1     -39.832 -50.103  14.701  1.00  0.00    -0.269 NA
ATOM     10  H   UNL A   1     -39.610 -55.323  15.419  1.00  0.00     0.191 HD
ATOM     11  H   UNL A   1     -39.884 -51.947  13.016  1.00  0.00     0.173 HD
ATOM     12  H   UNL A   1     -39.605 -52.619  16.778  1.00  0.00     0.159 HD
ATOM     13  H   UNL A   1     -39.642 -50.906  17.092  1.00  0.00     0.159 HD
ATOM     14  H   UNL A   1     -39.910 -49.789  13.722  1.00  0.00     0.191 HD
ENDROOT
TORSDOF 0
ENDMDL
MODEL 3
REMARK VINA RESULT:    -4.174     19.507     20.682
REMARK INTER + INTRA:          -4.174
REMARK INTER:                  -4.174
REMARK INTRA:                   0.000
REMARK UNBOUND:                 0.000
REMARK SMILES [H]/N=C(/N)N/C(=N/[H])N(C)C
REMARK SMILES IDX 10 1 9 2 11 3 6 4 7 5 5 6 3 7 4 8 2 9 8 10 1 14
REMARK H PARENT 5 11 4 12 4 13
REMARK Flexibility Score: inf
ROOT
ATOM      1  C   UNL A   1     -31.534 -41.207  15.006  1.00  0.00     0.146 C 
ATOM      2  N   UNL A   1     -31.098 -41.188  13.616  1.00  0.00    -0.349 N 
ATOM      3  C   UNL A   1     -31.461 -40.050  12.785  1.00  0.00     0.146 C 
ATOM      4  C   UNL A   1     -30.318 -42.280  13.069  1.00  0.00     0.197 C 
ATOM      5  N   UNL A   1     -30.001 -43.283  13.811  1.00  0.00    -0.269 NA
ATOM      6  N   UNL A   1     -29.893 -42.248  11.692  1.00  0.00    -0.297 N 
ATOM      7  C   UNL A   1     -29.119 -43.230  10.973  1.00  0.00     0.192 C 
ATOM      8  N   UNL A   1     -28.637 -44.440  11.552  1.00  0.00    -0.370 N 
ATOM      9  N   UNL A   1     -28.840 -43.014   9.735  1.00  0.00    -0.269 NA
ATOM     10  H   UNL A   1     -30.265 -43.381  14.800  1.00  0.00     0.191 HD
ATOM     11  H   UNL A   1     -30.167 -41.427  11.136  1.00  0.00     0.173 HD
ATOM     12  H   UNL A   1     -28.793 -44.725  12.521  1.00  0.00     0.159 HD
ATOM     13  H   UNL A   1     -28.091 -45.090  10.969  1.00  0.00     0.159 HD
ATOM     14  H   UNL A   1     -29.150 -42.162   9.243  1.00  0.00     0.191 HD
ENDROOT
TORSDOF 0
ENDMDL
MODEL 4
REMARK VINA RESULT:    -4.086      9.387     10.749
REMARK INTER + INTRA:          -4.086
REMARK INTER:                  -4.086
REMARK INTRA:                   0.000
REMARK UNBOUND:                 0.000
REMARK SMILES [H]/N=C(/N)N/C(=N/[H])N(C)C
REMARK SMILES IDX 10 1 9 2 11 3 6 4 7 5 5 6 3 7 4 8 2 9 8 10 1 14
REMARK H PARENT 5 11 4 12 4 13
REMARK Flexibility Score: inf
ROOT
ATOM      1  C   UNL A   1     -40.062 -23.589  32.897  1.00  0.00     0.146 C 
ATOM      2  N   UNL A   1     -39.389 -23.865  34.160  1.00  0.00    -0.349 N 
ATOM      3  C   UNL A   1     -39.942 -23.303  35.383  1.00  0.00     0.146 C 
ATOM      4  C   UNL A   1     -38.195 -24.685  34.199  1.00  0.00     0.197 C 
ATOM      5  N   UNL A   1     -37.714 -25.179  33.111  1.00  0.00    -0.269 NA
ATOM      6  N   UNL A   1     -37.540 -24.951  35.455  1.00  0.00    -0.297 N 
ATOM      7  C   UNL A   1     -36.353 -25.735  35.695  1.00  0.00     0.192 C 
ATOM      8  N   UNL A   1     -35.617 -26.394  34.669  1.00  0.00    -0.370 N 
ATOM      9  N   UNL A   1     -35.923 -25.854  36.903  1.00  0.00    -0.269 NA
ATOM     10  H   UNL A   1     -38.121 -25.036  32.179  1.00  0.00     0.191 HD
ATOM     11  H   UNL A   1     -37.959 -24.538  36.299  1.00  0.00     0.173 HD
ATOM     12  H   UNL A   1     -35.855 -26.374  33.676  1.00  0.00     0.159 HD
ATOM     13  H   UNL A   1     -34.778 -26.935  34.924  1.00  0.00     0.159 HD
ATOM     14  H   UNL A   1     -36.400 -25.408  37.702  1.00  0.00     0.191 HD
ENDROOT
TORSDOF 0
ENDMDL
MODEL 5
REMARK VINA RESULT:    -4.026     16.730     17.930
REMARK INTER + INTRA:          -4.026
REMARK INTER:                  -4.026
REMARK INTRA:                   0.000
REMARK UNBOUND:                 0.000
REMARK SMILES [H]/N=C(/N)N/C(=N/[H])N(C)C
REMARK SMILES IDX 10 1 9 2 11 3 6 4 7 5 5 6 3 7 4 8 2 9 8 10 1 14
REMARK H PARENT 5 11 4 12 4 13
REMARK Flexibility Score: inf
ROOT
ATOM      1  C   UNL A   1     -29.317 -38.405  16.452  1.00  0.00     0.146 C 
ATOM      2  N   UNL A   1     -30.100 -37.922  15.322  1.00  0.00    -0.349 N 
ATOM      3  C   UNL A   1     -30.598 -36.555  15.352  1.00  0.00     0.146 C 
ATOM      4  C   UNL A   1     -30.377 -38.783  14.189  1.00  0.00     0.197 C 
ATOM      5  N   UNL A   1     -29.931 -39.991  14.171  1.00  0.00    -0.269 NA
ATOM      6  N   UNL A   1     -31.152 -38.290  13.078  1.00  0.00    -0.297 N 
ATOM      7  C   UNL A   1     -31.528 -38.988  11.873  1.00  0.00     0.192 C 
ATOM      8  N   UNL A   1     -31.171 -40.338  11.594  1.00  0.00    -0.370 N 
ATOM      9  N   UNL A   1     -32.230 -38.366  10.991  1.00  0.00    -0.269 NA
ATOM     10  H   UNL A   1     -29.373 -40.415  14.922  1.00  0.00     0.191 HD
ATOM     11  H   UNL A   1     -31.486 -37.319  13.134  1.00  0.00     0.173 HD
ATOM     12  H   UNL A   1     -30.619 -40.936  12.213  1.00  0.00     0.159 HD
ATOM     13  H   UNL A   1     -31.481 -40.765  10.709  1.00  0.00     0.159 HD
ATOM     14  H   UNL A   1     -32.529 -37.387  11.118  1.00  0.00     0.191 HD
ENDROOT
TORSDOF 0
ENDMDL
MODEL 6
REMARK VINA RESULT:    -3.917     35.587     37.773
REMARK INTER + INTRA:          -3.917
REMARK INTER:                  -3.917
REMARK INTRA:                   0.000
REMARK UNBOUND:                 0.000
REMARK SMILES [H]/N=C(/N)N/C(=N/[H])N(C)C
REMARK SMILES IDX 10 1 9 2 11 3 6 4 7 5 5 6 3 7 4 8 2 9 8 10 1 14
REMARK H PARENT 5 11 4 12 4 13
REMARK Flexibility Score: inf
ROOT
ATOM      1  C   UNL A   1     -66.809 -48.703  10.152  1.00  0.00     0.146 C 
ATOM      2  N   UNL A   1     -65.357 -48.731  10.265  1.00  0.00    -0.349 N 
ATOM      3  C   UNL A   1     -64.561 -48.151   9.193  1.00  0.00     0.146 C 
ATOM      4  C   UNL A   1     -64.714 -49.325  11.421  1.00  0.00     0.197 C 
ATOM      5  N   UNL A   1     -65.427 -49.835  12.365  1.00  0.00    -0.269 NA
ATOM      6  N   UNL A   1     -63.277 -49.345  11.519  1.00  0.00    -0.297 N 
ATOM      7  C   UNL A   1     -62.462 -49.885  12.580  1.00  0.00     0.192 C 
ATOM      8  N   UNL A   1     -62.990 -50.511  13.746  1.00  0.00    -0.370 N 
ATOM      9  N   UNL A   1     -61.181 -49.804  12.480  1.00  0.00    -0.269 NA
ATOM     10  H   UNL A   1     -66.454 -49.860  12.369  1.00  0.00     0.191 HD
ATOM     11  H   UNL A   1     -62.748 -48.925  10.744  1.00  0.00     0.173 HD
ATOM     12  H   UNL A   1     -63.986 -50.637  13.940  1.00  0.00     0.159 HD
ATOM     13  H   UNL A   1     -62.339 -50.872  14.459  1.00  0.00     0.159 HD
ATOM     14  H   UNL A   1     -60.721 -49.366  11.668  1.00  0.00     0.191 HD
ENDROOT
TORSDOF 0
ENDMDL
MODEL 7
REMARK VINA RESULT:    -3.899     35.127     36.482
REMARK INTER + INTRA:          -3.899
REMARK INTER:                  -3.899
REMARK INTRA:                   0.000
REMARK UNBOUND:                 0.000
REMARK SMILES [H]/N=C(/N)N/C(=N/[H])N(C)C
REMARK SMILES IDX 10 1 9 2 11 3 6 4 7 5 5 6 3 7 4 8 2 9 8 10 1 14
REMARK H PARENT 5 11 4 12 4 13
REMARK Flexibility Score: inf
ROOT
ATOM      1  C   UNL A   1     -49.342 -34.126  -4.803  1.00  0.00     0.146 C 
ATOM      2  N   UNL A   1     -48.430 -33.225  -4.110  1.00  0.00    -0.349 N 
ATOM      3  C   UNL A   1     -47.808 -33.676  -2.874  1.00  0.00     0.146 C 
ATOM      4  C   UNL A   1     -48.146 -31.906  -4.639  1.00  0.00     0.197 C 
ATOM      5  N   UNL A   1     -48.700 -31.516  -5.735  1.00  0.00    -0.269 NA
ATOM      6  N   UNL A   1     -47.241 -31.026  -3.943  1.00  0.00    -0.297 N 
ATOM      7  C   UNL A   1     -46.837 -29.690  -4.308  1.00  0.00     0.192 C 
ATOM      8  N   UNL A   1     -47.300 -29.011  -5.472  1.00  0.00    -0.370 N 
ATOM      9  N   UNL A   1     -46.011 -29.063  -3.545  1.00  0.00    -0.269 NA
ATOM     10  H   UNL A   1     -49.354 -32.082  -6.289  1.00  0.00     0.191 HD
ATOM     11  H   UNL A   1     -46.821 -31.379  -3.073  1.00  0.00     0.173 HD
ATOM     12  H   UNL A   1     -47.956 -29.401  -6.152  1.00  0.00     0.159 HD
ATOM     13  H   UNL A   1     -46.963 -28.056  -5.661  1.00  0.00     0.159 HD
ATOM     14  H   UNL A   1     -45.629 -29.485  -2.685  1.00  0.00     0.191 HD
ENDROOT
TORSDOF 0
ENDMDL
MODEL 8
REMARK VINA RESULT:    -3.873      9.109     10.379
REMARK INTER + INTRA:          -3.873
REMARK INTER:                  -3.873
REMARK INTRA:                   0.000
REMARK UNBOUND:                 0.000
REMARK SMILES [H]/N=C(/N)N/C(=N/[H])N(C)C
REMARK SMILES IDX 10 1 9 2 11 3 6 4 7 5 5 6 3 7 4 8 2 9 8 10 1 14
REMARK H PARENT 5 11 4 12 4 13
REMARK Flexibility Score: inf
ROOT
ATOM      1  C   UNL A   1     -38.924 -39.677  25.992  1.00  0.00     0.146 C 
ATOM      2  N   UNL A   1     -40.275 -40.223  25.971  1.00  0.00    -0.349 N 
ATOM      3  C   UNL A   1     -40.838 -40.647  24.697  1.00  0.00     0.146 C 
ATOM      4  C   UNL A   1     -41.045 -40.343  27.193  1.00  0.00     0.197 C 
ATOM      5  N   UNL A   1     -40.539 -39.966  28.316  1.00  0.00    -0.269 NA
ATOM      6  N   UNL A   1     -42.380 -40.886  27.157  1.00  0.00    -0.297 N 
ATOM      7  C   UNL A   1     -43.294 -41.082  28.256  1.00  0.00     0.192 C 
ATOM      8  N   UNL A   1     -42.992 -40.749  29.608  1.00  0.00    -0.370 N 
ATOM      9  N   UNL A   1     -44.453 -41.587  28.015  1.00  0.00    -0.269 NA
ATOM     10  H   UNL A   1     -39.597 -39.570  28.425  1.00  0.00     0.191 HD
ATOM     11  H   UNL A   1     -42.744 -41.176  26.240  1.00  0.00     0.173 HD
ATOM     12  H   UNL A   1     -42.110 -40.343  29.926  1.00  0.00     0.159 HD
ATOM     13  H   UNL A   1     -43.701 -40.921  30.336  1.00  0.00     0.159 HD
ATOM     14  H   UNL A   1     -44.748 -41.855  27.063  1.00  0.00     0.191 HD
ENDROOT
TORSDOF 0
ENDMDL
MODEL 9
REMARK VINA RESULT:    -3.859     34.979     35.690
REMARK INTER + INTRA:          -3.859
REMARK INTER:                  -3.859
REMARK INTRA:                   0.000
REMARK UNBOUND:                 0.000
REMARK SMILES [H]/N=C(/N)N/C(=N/[H])N(C)C
REMARK SMILES IDX 10 1 9 2 11 3 6 4 7 5 5 6 3 7 4 8 2 9 8 10 1 14
REMARK H PARENT 5 11 4 12 4 13
REMARK Flexibility Score: inf
ROOT
ATOM      1  C   UNL A   1     -47.430 -34.642  -4.654  1.00  0.00     0.146 C 
ATOM      2  N   UNL A   1     -47.578 -33.245  -4.269  1.00  0.00    -0.349 N 
ATOM      3  C   UNL A   1     -48.915 -32.727  -4.015  1.00  0.00     0.146 C 
ATOM      4  C   UNL A   1     -46.418 -32.385  -4.140  1.00  0.00     0.197 C 
ATOM      5  N   UNL A   1     -45.240 -32.851  -4.366  1.00  0.00    -0.269 NA
ATOM      6  N   UNL A   1     -46.580 -31.004  -3.757  1.00  0.00    -0.297 N 
ATOM      7  C   UNL A   1     -45.557 -30.002  -3.579  1.00  0.00     0.192 C 
ATOM      8  N   UNL A   1     -44.167 -30.245  -3.766  1.00  0.00    -0.370 N 
ATOM      9  N   UNL A   1     -45.910 -28.814  -3.230  1.00  0.00    -0.269 NA
ATOM     10  H   UNL A   1     -45.041 -33.821  -4.642  1.00  0.00     0.191 HD
ATOM     11  H   UNL A   1     -47.539 -30.675  -3.585  1.00  0.00     0.173 HD
ATOM     12  H   UNL A   1     -43.763 -31.143  -4.042  1.00  0.00     0.159 HD
ATOM     13  H   UNL A   1     -43.499 -29.474  -3.618  1.00  0.00     0.159 HD
ATOM     14  H   UNL A   1     -46.896 -28.557  -3.074  1.00  0.00     0.191 HD
ENDROOT
TORSDOF 0
ENDMDL
